test/test_files/matlab_test_files/d_loads_mdl.m
Bus.con = [ ...
  1  400  1  0  1  1;
  2  400  1  0  1  1;
  3  400  1  0  1  1;
 ];

Line.con = [ ...
  1  2  100  400  60  0  0  0.01  0.1  0.001  0  0  0  0  0  1;
  1  3  100  400  60  0  0  0.01  0.1  0.001  0  0  0  0  0  1;
 ];

SW.con = [ ...
  1  100  400  1  0  1.5  -1.5  1.1  0.9  0.8  1  1  1;
 ];

PQ.con = [ ...
  2  100  400  0.8  0.6  1.2  0.8  1  1;
  3  100  400  0.8  0.6  1.2  0.8  1  1;
 ];

Mn.con = [ ...
  1  100  400  0.8  0.6  2  2  0  1;
 ];

Pl.con = [ ...
  1  100  400  60  0.33  0.33  0.33  0.33  0.33  0.33  0  1;
 ];

Fl.con = [ ...
  2  30  2  1.3  80  2  1.3  0.01  1;
 ];

Thload.con = [ ...
  2  50  100  25  10  1200  10  70  0  0  2  1;
 ];

Exload.con = [ ...
  3  100  40  40  1  1  2  1.5  2  1.5  1;
 ];

Jimma.con = [ ...
  3  100  400  60  0.01  20  20  20  20  20  20  100  1;
 ];

Mixload.con = [ ...
  2  100  400  60  0  20  0  0.12  0  20  0  0.075  0.005  0.007  1;
 ];

Bus.names = {...
  'Bus1'; 'Bus2'; 'Bus3'};
